
OS:Version,
  {8e1756c1-6a85-43f8-827a-ab74315ec5e2}, !- Handle
  2.1.0;                                  !- Version Identifier

OS:Site,
  {5f694a38-9fae-43a5-b787-6f5c6eb4a82d}, !- Handle
  Denver Intl Ap,                         !- Name
  39.83,                                  !- Latitude {deg}
  -104.65,                                !- Longitude {deg}
  -7,                                     !- Time Zone {hr}
  1650,                                   !- Elevation {m}
  City;                                   !- Terrain

OS:YearDescription,
  {d3535e1f-39d0-4f78-93d2-58e3ee973559}, !- Handle
  ,                                       !- Calendar Year
  Sunday,                                 !- Day of Week for Start Day
  ;                                       !- Is Leap Year

OS:ClimateZones,
  {ca1e8ed0-0f01-478a-a27e-caf206a80859}, !- Handle
  ,                                       !- Active Institution
  ,                                       !- Active Year
  ASHRAE,                                 !- Climate Zone Institution Name 1
  ANSI/ASHRAE Standard 169,               !- Climate Zone Document Name 1
  2006,                                   !- Climate Zone Document Year 1
  1A,                                     !- Climate Zone Value 1
  CEC,                                    !- Climate Zone Institution Name 2
  California Climate Zone Descriptions,   !- Climate Zone Document Name 2
  1995,                                   !- Climate Zone Document Year 2
  ;                                       !- Climate Zone Value 2

OS:Building,
  {8e5040c5-1afa-4f0b-9fed-7528187e262c}, !- Handle
  90.1-2004-CollegeUniversity-ASHRAE 169-2006-1A, !- Name
  ,                                       !- Building Sector Type
  ,                                       !- North Axis {deg}
  ,                                       !- Nominal Floor to Floor Height {m}
  ,                                       !- Space Type Name
  {9b9aeccf-4396-4ef5-828d-df6bdf12d39e}, !- Default Construction Set Name
  ;                                       !- Default Schedule Set Name

OS:Facility,
  {9d1b047e-42c5-4ce6-9cca-7b82059571df}; !- Handle

OS:SimulationControl,
  {48dbede9-4502-4ad5-9a87-a3b9e367fba3}, !- Handle
  Yes,                                    !- Do Zone Sizing Calculation
  Yes,                                    !- Do System Sizing Calculation
  Yes,                                    !- Do Plant Sizing Calculation
  No,                                     !- Run Simulation for Sizing Periods
  ,                                       !- Run Simulation for Weather File Run Periods
  ,                                       !- Loads Convergence Tolerance Value
  0.2,                                    !- Temperature Convergence Tolerance Value {deltaC}
  FullInteriorAndExterior;                !- Solar Distribution

OS:Sizing:Parameters,
  {aa3165f0-9f6f-4f2e-bd76-15d48760bb8f}, !- Handle
  1,                                      !- Heating Sizing Factor
  1;                                      !- Cooling Sizing Factor

OS:Timestep,
  {ffbdb975-e5c5-45e2-8bff-42518af4eb74}, !- Handle
  6;                                      !- Number of Timesteps per Hour

OS:ShadowCalculation,
  {b88ecca5-ad77-4bc9-a600-90a364b44140}, !- Handle
  15000,                                  !- Calculation Frequency
  15000;                                  !- Maximum Figures in Shadow Overlap Calculations

OS:HeatBalanceAlgorithm,
  {056bbf22-9a5b-43ba-9796-736f01b1762a}, !- Handle
  ConductionTransferFunction,             !- Algorithm
  200;                                    !- Surface Temperature Upper Limit {C}

OS:RunPeriod,
  {7468e96d-0a38-4776-bfba-5859bfbdf04b}, !- Handle
  Run Period 1,                           !- Name
  1,                                      !- Begin Month
  1,                                      !- Begin Day of Month
  12,                                     !- End Month
  31,                                     !- End Day of Month
  ,                                       !- Use Weather File Holidays and Special Days
  ,                                       !- Use Weather File Daylight Saving Period
  ,                                       !- Apply Weekend Holiday Rule
  ,                                       !- Use Weather File Rain Indicators
  ,                                       !- Use Weather File Snow Indicators
  ;                                       !- Number of Times Runperiod to be Repeated

OS:LifeCycleCost:Parameters,
  {fd56238f-3ea2-4f31-a6c7-08d977ec9567}, !- Handle
  FEMP,                                   !- Analysis Type
  ,                                       !- Discounting Convention
  ,                                       !- Inflation Approach
  ,                                       !- Real Discount Rate
  ,                                       !- Nominal Discount Rate
  ,                                       !- Inflation
  ,                                       !- Base Date Month
  ,                                       !- Base Date Year
  ,                                       !- Service Date Month
  ,                                       !- Service Date Year
  ,                                       !- Length of Study Period in Years
  ,                                       !- Tax Rate
  ,                                       !- Depreciation Method
  Yes;                                    !- Use NIST Fuel Escalation Rates

OS:SizingPeriod:DesignDay,
  {8d83371c-0af6-4aa6-984b-40598d50f7e3}, !- Handle
  Denver Intl Ap Ann Clg .4% Condns DB=>MWB, !- Name
  34.6,                                   !- Maximum Dry-Bulb Temperature {C}
  15.2,                                   !- Daily Dry-Bulb Temperature Range {deltaC}
  15.7,                                   !- Humidity Indicating Conditions at Maximum Dry-Bulb
  83011,                                  !- Barometric Pressure {Pa}
  4.2,                                    !- Wind Speed {m/s}
  80,                                     !- Wind Direction {deg}
  0,                                      !- Sky Clearness
  0,                                      !- Rain Indicator
  0,                                      !- Snow Indicator
  21,                                     !- Day of Month
  7,                                      !- Month
  SummerDesignDay,                        !- Day Type
  0,                                      !- Daylight Saving Time Indicator
  Wetbulb,                                !- Humidity Indicating Type
  ,                                       !- Humidity Indicating Day Schedule Name
  DefaultMultipliers,                     !- Dry-Bulb Temperature Range Modifier Type
  ,                                       !- Dry-Bulb Temperature Range Modifier Schedule Name
  ASHRAETau,                              !- Solar Model Indicator
  ,                                       !- Beam Solar Day Schedule Name
  ,                                       !- Diffuse Solar Day Schedule Name
  0.424,                                  !- ASHRAE Taub {dimensionless}
  2.012;                                  !- ASHRAE Taud {dimensionless}

OS:SizingPeriod:DesignDay,
  {62327b0e-e1e8-4be0-9b7a-c719d7fb1142}, !- Handle
  Denver Intl Ap Ann Htg 99.6% Condns DB, !- Name
  -17.4,                                  !- Maximum Dry-Bulb Temperature {C}
  0,                                      !- Daily Dry-Bulb Temperature Range {deltaC}
  -17.4,                                  !- Humidity Indicating Conditions at Maximum Dry-Bulb
  83011,                                  !- Barometric Pressure {Pa}
  3.3,                                    !- Wind Speed {m/s}
  160,                                    !- Wind Direction {deg}
  0,                                      !- Sky Clearness
  0,                                      !- Rain Indicator
  0,                                      !- Snow Indicator
  21,                                     !- Day of Month
  12,                                     !- Month
  WinterDesignDay,                        !- Day Type
  0,                                      !- Daylight Saving Time Indicator
  Wetbulb,                                !- Humidity Indicating Type
  ,                                       !- Humidity Indicating Day Schedule Name
  DefaultMultipliers,                     !- Dry-Bulb Temperature Range Modifier Type
  ,                                       !- Dry-Bulb Temperature Range Modifier Schedule Name
  ASHRAEClearSky;                         !- Solar Model Indicator

OS:DefaultScheduleSet,
  {a627012e-d8ad-4773-9659-ea25b7d221e9}, !- Handle
  College/University_WholeBuilding_Schedule_Set, !- Name
  ,                                       !- Hours of Operation Schedule Name
  {20918f49-48af-4af1-be30-d5c4df5c19b9}, !- Number of People Schedule Name
  {30489a7a-8258-4a84-abc4-98dcf568c67d}, !- People Activity Level Schedule Name
  {9456967f-02da-494b-85d2-daccdc03683f}, !- Lighting Schedule Name
  {791f98c5-386f-4336-ac94-1014c49e5705}, !- Electric Equipment Schedule Name
  ,                                       !- Gas Equipment Schedule Name
  ,                                       !- Hot Water Equipment Schedule Name
  {1df85c4e-90f5-4b8e-b745-fd47d4ca345a}, !- Infiltration Schedule Name
  ,                                       !- Steam Equipment Schedule Name
  ;                                       !- Other Equipment Schedule Name

OS:ScheduleTypeLimits,
  {64d69f90-8f97-4a65-92d2-23bb0c8eaa25}, !- Handle
  Dimensionless,                          !- Name
  ,                                       !- Lower Limit Value
  ,                                       !- Upper Limit Value
  Continuous;                             !- Numeric Type

OS:ScheduleTypeLimits,
  {a353ad1f-35e0-424d-8f46-41c697481772}, !- Handle
  Fractional,                             !- Name
  0,                                      !- Lower Limit Value
  1,                                      !- Upper Limit Value
  Continuous;                             !- Numeric Type

OS:ScheduleTypeLimits,
  {fe9c8bd0-ea66-491b-aea2-af88c38df5bf}, !- Handle
  ActivityLevel,                          !- Name
  0,                                      !- Lower Limit Value
  ,                                       !- Upper Limit Value
  Continuous,                             !- Numeric Type
  ActivityLevel;                          !- Unit Type

OS:ScheduleTypeLimits,
  {25eaead8-0c46-47c2-bcdc-3cb1ddd43736}, !- Handle
  OnOff,                                  !- Name
  0,                                      !- Lower Limit Value
  1,                                      !- Upper Limit Value
  Discrete,                               !- Numeric Type
  Availability;                           !- Unit Type

OS:ScheduleTypeLimits,
  {9444d3ac-f055-44b6-a8ba-608094a831ee}, !- Handle
  Capacity,                               !- Name
  0,                                      !- Lower Limit Value
  ,                                       !- Upper Limit Value
  Continuous,                             !- Numeric Type
  Capacity;                               !- Unit Type

OS:ScheduleTypeLimits,
  {ef1a05fb-258c-4973-acbf-4d9566159ddf}, !- Handle
  ClothingInsulation,                     !- Name
  0,                                      !- Lower Limit Value
  ,                                       !- Upper Limit Value
  Continuous,                             !- Numeric Type
  ClothingInsulation;                     !- Unit Type

OS:ScheduleTypeLimits,
  {47610fbd-4189-4778-9065-af4285d9c44c}, !- Handle
  ControlMode,                            !- Name
  0,                                      !- Lower Limit Value
  1,                                      !- Upper Limit Value
  Discrete,                               !- Numeric Type
  ControlMode;                            !- Unit Type

OS:ScheduleTypeLimits,
  {4bfca7d4-9131-49c9-803b-febbdf26d556}, !- Handle
  DeltaTemperature,                       !- Name
  ,                                       !- Lower Limit Value
  ,                                       !- Upper Limit Value
  Continuous,                             !- Numeric Type
  DeltaTemperature;                       !- Unit Type

OS:ScheduleTypeLimits,
  {8cf6c322-1a64-4b91-b083-46992f1f7f1b}, !- Handle
  Dimensionless 1,                        !- Name
  0,                                      !- Lower Limit Value
  1,                                      !- Upper Limit Value
  Continuous,                             !- Numeric Type
  Dimensionless;                          !- Unit Type

OS:ScheduleTypeLimits,
  {874f3c77-ad73-42ef-bee9-ca8755f22e7e}, !- Handle
  LinearPowerDensity,                     !- Name
  0,                                      !- Lower Limit Value
  ,                                       !- Upper Limit Value
  Continuous,                             !- Numeric Type
  LinearPowerDensity;                     !- Unit Type

OS:ScheduleTypeLimits,
  {40e15f7c-9f6a-4bab-979f-6acf68ac7fd7}, !- Handle
  MassFlowRate,                           !- Name
  ,                                       !- Lower Limit Value
  ,                                       !- Upper Limit Value
  Continuous,                             !- Numeric Type
  MassFlowRate;                           !- Unit Type

OS:ScheduleTypeLimits,
  {2a936177-e7f1-4118-8dc2-fc685ba18e9b}, !- Handle
  Percent,                                !- Name
  0,                                      !- Lower Limit Value
  100,                                    !- Upper Limit Value
  Continuous,                             !- Numeric Type
  Percent;                                !- Unit Type

OS:ScheduleTypeLimits,
  {028b2cbb-7756-4a06-92b0-457caa11262f}, !- Handle
  Pressure,                               !- Name
  ,                                       !- Lower Limit Value
  ,                                       !- Upper Limit Value
  Continuous,                             !- Numeric Type
  Pressure;                               !- Unit Type

OS:ScheduleTypeLimits,
  {a7dbfca6-4c52-487a-a08b-19b9c3a7b3da}, !- Handle
  RotationsPerMinute,                     !- Name
  ,                                       !- Lower Limit Value
  ,                                       !- Upper Limit Value
  Continuous,                             !- Numeric Type
  RotationsPerMinute;                     !- Unit Type

OS:ScheduleTypeLimits,
  {d8a2067b-9182-4faa-b65d-3bb1868b689c}, !- Handle
  Temperature,                            !- Name
  ,                                       !- Lower Limit Value
  ,                                       !- Upper Limit Value
  Continuous,                             !- Numeric Type
  Temperature;                            !- Unit Type

OS:ScheduleTypeLimits,
  {66e8b562-15ae-489d-8989-93baf1454bdb}, !- Handle
  Velocity,                               !- Name
  0,                                      !- Lower Limit Value
  ,                                       !- Upper Limit Value
  Continuous,                             !- Numeric Type
  Velocity;                               !- Unit Type

OS:ScheduleTypeLimits,
  {d2e6844e-f4fc-4b63-8bc0-de11133c86c6}, !- Handle
  VolumetricFlowRate,                     !- Name
  0,                                      !- Lower Limit Value
  ,                                       !- Upper Limit Value
  Continuous,                             !- Numeric Type
  VolumetricFlowRate;                     !- Unit Type

OS:Schedule:Ruleset,
  {20918f49-48af-4af1-be30-d5c4df5c19b9}, !- Handle
  Occupancy_Schedule,                     !- Name
  {a353ad1f-35e0-424d-8f46-41c697481772}, !- Schedule Type Limits Name
  {347ed178-b52f-48af-a1f6-9c2b42818acc}, !- Default Day Schedule Name
  {ea538ac5-9d99-4633-bd7c-8be55c7286a5}, !- Summer Design Day Schedule Name
  {3e6314ed-b5a9-4355-9216-722e4889348f}; !- Winter Design Day Schedule Name

OS:Schedule:Day,
  {347ed178-b52f-48af-a1f6-9c2b42818acc}, !- Handle
  Schedule Day 1,                         !- Name
  {a353ad1f-35e0-424d-8f46-41c697481772}, !- Schedule Type Limits Name
  ,                                       !- Interpolate to Timestep
  24,                                     !- Hour 1
  0,                                      !- Minute 1
  0;                                      !- Value Until Time 1

OS:Schedule:Rule,
  {0a65fc58-0e10-4bed-b80d-72dc86fe0a53}, !- Handle
  Schedule Rule 1,                        !- Name
  {20918f49-48af-4af1-be30-d5c4df5c19b9}, !- Schedule Ruleset Name
  1,                                      !- Rule Order
  {ebff7b6f-efb5-4aa2-ae13-16d11c6c3c69}, !- Day Schedule Name
  ,                                       !- Apply Sunday
  ,                                       !- Apply Monday
  ,                                       !- Apply Tuesday
  ,                                       !- Apply Wednesday
  ,                                       !- Apply Thursday
  ,                                       !- Apply Friday
  Yes;                                    !- Apply Saturday

OS:Schedule:Day,
  {ebff7b6f-efb5-4aa2-ae13-16d11c6c3c69}, !- Handle
  Schedule Day 2,                         !- Name
  {a353ad1f-35e0-424d-8f46-41c697481772}, !- Schedule Type Limits Name
  ,                                       !- Interpolate to Timestep
  24,                                     !- Hour 1
  0,                                      !- Minute 1
  0;                                      !- Value Until Time 1

OS:Schedule:Rule,
  {d26ccdbc-3cce-45a0-a9a9-ba5f9557c5ec}, !- Handle
  Schedule Rule 2,                        !- Name
  {20918f49-48af-4af1-be30-d5c4df5c19b9}, !- Schedule Ruleset Name
  0,                                      !- Rule Order
  {f6dfd110-95c0-423b-9336-8ec2b07b6a25}, !- Day Schedule Name
  ,                                       !- Apply Sunday
  Yes,                                    !- Apply Monday
  Yes,                                    !- Apply Tuesday
  Yes,                                    !- Apply Wednesday
  Yes,                                    !- Apply Thursday
  Yes;                                    !- Apply Friday

OS:Schedule:Day,
  {f6dfd110-95c0-423b-9336-8ec2b07b6a25}, !- Handle
  Schedule Day 3,                         !- Name
  {a353ad1f-35e0-424d-8f46-41c697481772}, !- Schedule Type Limits Name
  ,                                       !- Interpolate to Timestep
  8,                                      !- Hour 1
  0,                                      !- Minute 1
  0,                                      !- Value Until Time 1
  16,                                     !- Hour 2
  0,                                      !- Minute 2
  0.949999988079071,                      !- Value Until Time 2
  21,                                     !- Hour 3
  0,                                      !- Minute 3
  0.150000005960464,                      !- Value Until Time 3
  24,                                     !- Hour 4
  0,                                      !- Minute 4
  0;                                      !- Value Until Time 4

OS:Schedule:Day,
  {ea538ac5-9d99-4633-bd7c-8be55c7286a5}, !- Handle
  Schedule Day 5,                         !- Name
  {a353ad1f-35e0-424d-8f46-41c697481772}, !- Schedule Type Limits Name
  ,                                       !- Interpolate to Timestep
  24,                                     !- Hour 1
  0,                                      !- Minute 1
  1;                                      !- Value Until Time 1

OS:Schedule:Day,
  {3e6314ed-b5a9-4355-9216-722e4889348f}, !- Handle
  Schedule Day 6,                         !- Name
  {a353ad1f-35e0-424d-8f46-41c697481772}, !- Schedule Type Limits Name
  ,                                       !- Interpolate to Timestep
  24,                                     !- Hour 1
  0,                                      !- Minute 1
  0;                                      !- Value Until Time 1

OS:Schedule:Ruleset,
  {9456967f-02da-494b-85d2-daccdc03683f}, !- Handle
  Lighting_Schedule,                      !- Name
  {a353ad1f-35e0-424d-8f46-41c697481772}, !- Schedule Type Limits Name
  {c2c7cdb6-2874-4ff2-99a3-9af82e841c2b}, !- Default Day Schedule Name
  {b07dbb9b-b7d3-434a-8614-00607f92c201}, !- Summer Design Day Schedule Name
  {d696963c-df76-419d-ae59-fbc037d26e9f}; !- Winter Design Day Schedule Name

OS:Schedule:Day,
  {c2c7cdb6-2874-4ff2-99a3-9af82e841c2b}, !- Handle
  Schedule Day 4,                         !- Name
  {a353ad1f-35e0-424d-8f46-41c697481772}, !- Schedule Type Limits Name
  ,                                       !- Interpolate to Timestep
  24,                                     !- Hour 1
  0,                                      !- Minute 1
  0.180000007152557;                      !- Value Until Time 1

OS:Schedule:Day,
  {b07dbb9b-b7d3-434a-8614-00607f92c201}, !- Handle
  Schedule Day 8,                         !- Name
  {a353ad1f-35e0-424d-8f46-41c697481772}, !- Schedule Type Limits Name
  ,                                       !- Interpolate to Timestep
  24,                                     !- Hour 1
  0,                                      !- Minute 1
  1;                                      !- Value Until Time 1

OS:Schedule:Day,
  {d696963c-df76-419d-ae59-fbc037d26e9f}, !- Handle
  Schedule Day 9,                         !- Name
  {a353ad1f-35e0-424d-8f46-41c697481772}, !- Schedule Type Limits Name
  ,                                       !- Interpolate to Timestep
  24,                                     !- Hour 1
  0,                                      !- Minute 1
  0;                                      !- Value Until Time 1

OS:Schedule:Rule,
  {0ebfea44-b4e7-48f0-839d-9e588fb2e8cb}, !- Handle
  Schedule Rule 3,                        !- Name
  {9456967f-02da-494b-85d2-daccdc03683f}, !- Schedule Ruleset Name
  1,                                      !- Rule Order
  {527f3c6c-1e82-45a3-8dd2-2a648d3c71e4}, !- Day Schedule Name
  ,                                       !- Apply Sunday
  ,                                       !- Apply Monday
  ,                                       !- Apply Tuesday
  ,                                       !- Apply Wednesday
  ,                                       !- Apply Thursday
  ,                                       !- Apply Friday
  Yes;                                    !- Apply Saturday

OS:Schedule:Day,
  {527f3c6c-1e82-45a3-8dd2-2a648d3c71e4}, !- Handle
  Schedule Day 7,                         !- Name
  {a353ad1f-35e0-424d-8f46-41c697481772}, !- Schedule Type Limits Name
  ,                                       !- Interpolate to Timestep
  24,                                     !- Hour 1
  0,                                      !- Minute 1
  0.180000007152557;                      !- Value Until Time 1

OS:Schedule:Rule,
  {466a3812-e316-4159-a2f5-684ab99f3e93}, !- Handle
  Schedule Rule 4,                        !- Name
  {9456967f-02da-494b-85d2-daccdc03683f}, !- Schedule Ruleset Name
  0,                                      !- Rule Order
  {8b7056b3-163e-45c5-bf67-b36a2c3f492e}, !- Day Schedule Name
  ,                                       !- Apply Sunday
  Yes,                                    !- Apply Monday
  Yes,                                    !- Apply Tuesday
  Yes,                                    !- Apply Wednesday
  Yes,                                    !- Apply Thursday
  Yes;                                    !- Apply Friday

OS:Schedule:Day,
  {8b7056b3-163e-45c5-bf67-b36a2c3f492e}, !- Handle
  Schedule Day 10,                        !- Name
  {a353ad1f-35e0-424d-8f46-41c697481772}, !- Schedule Type Limits Name
  ,                                       !- Interpolate to Timestep
  7,                                      !- Hour 1
  0,                                      !- Minute 1
  0.180000007152557,                      !- Value Until Time 1
  21,                                     !- Hour 2
  0,                                      !- Minute 2
  0.899999976158142,                      !- Value Until Time 2
  24,                                     !- Hour 3
  0,                                      !- Minute 3
  0.180000007152557;                      !- Value Until Time 3

OS:Schedule:Ruleset,
  {30489a7a-8258-4a84-abc4-98dcf568c67d}, !- Handle
  Activity_Schedule,                      !- Name
  {fe9c8bd0-ea66-491b-aea2-af88c38df5bf}, !- Schedule Type Limits Name
  {7b808307-4f14-45ab-8518-f578f617e488}, !- Default Day Schedule Name
  {c2743228-a06d-469d-ab93-cad40e0177e5}, !- Summer Design Day Schedule Name
  {7c1af711-6d63-4027-927b-b2bc9f96454b}; !- Winter Design Day Schedule Name

OS:Schedule:Day,
  {7b808307-4f14-45ab-8518-f578f617e488}, !- Handle
  Schedule Day 11,                        !- Name
  {fe9c8bd0-ea66-491b-aea2-af88c38df5bf}, !- Schedule Type Limits Name
  ,                                       !- Interpolate to Timestep
  24,                                     !- Hour 1
  0,                                      !- Minute 1
  123;                                    !- Value Until Time 1

OS:Schedule:Day,
  {7c1af711-6d63-4027-927b-b2bc9f96454b}, !- Handle
  Schedule Day 13,                        !- Name
  {fe9c8bd0-ea66-491b-aea2-af88c38df5bf}, !- Schedule Type Limits Name
  ,                                       !- Interpolate to Timestep
  24,                                     !- Hour 1
  0,                                      !- Minute 1
  123;                                    !- Value Until Time 1

OS:Schedule:Day,
  {c2743228-a06d-469d-ab93-cad40e0177e5}, !- Handle
  Schedule Day 14,                        !- Name
  {fe9c8bd0-ea66-491b-aea2-af88c38df5bf}, !- Schedule Type Limits Name
  ,                                       !- Interpolate to Timestep
  24,                                     !- Hour 1
  0,                                      !- Minute 1
  123;                                    !- Value Until Time 1

OS:Schedule:Ruleset,
  {791f98c5-386f-4336-ac94-1014c49e5705}, !- Handle
  Equipment_Schedule,                     !- Name
  {a353ad1f-35e0-424d-8f46-41c697481772}, !- Schedule Type Limits Name
  {c3ca3897-5fdb-462b-917e-bcd6c410f7aa}, !- Default Day Schedule Name
  {036f9ca3-b834-4655-8d0d-fde31ba22380}, !- Summer Design Day Schedule Name
  {e4984a8a-8868-49cb-b9ee-8d09abd594d5}; !- Winter Design Day Schedule Name

OS:Schedule:Day,
  {c3ca3897-5fdb-462b-917e-bcd6c410f7aa}, !- Handle
  Schedule Day 12,                        !- Name
  {a353ad1f-35e0-424d-8f46-41c697481772}, !- Schedule Type Limits Name
  ,                                       !- Interpolate to Timestep
  24,                                     !- Hour 1
  0,                                      !- Minute 1
  0.349999994039536;                      !- Value Until Time 1

OS:Schedule:Day,
  {036f9ca3-b834-4655-8d0d-fde31ba22380}, !- Handle
  Schedule Day 16,                        !- Name
  {a353ad1f-35e0-424d-8f46-41c697481772}, !- Schedule Type Limits Name
  ,                                       !- Interpolate to Timestep
  24,                                     !- Hour 1
  0,                                      !- Minute 1
  1;                                      !- Value Until Time 1

OS:Schedule:Day,
  {e4984a8a-8868-49cb-b9ee-8d09abd594d5}, !- Handle
  Schedule Day 17,                        !- Name
  {a353ad1f-35e0-424d-8f46-41c697481772}, !- Schedule Type Limits Name
  ,                                       !- Interpolate to Timestep
  24,                                     !- Hour 1
  0,                                      !- Minute 1
  0;                                      !- Value Until Time 1

OS:Schedule:Rule,
  {6a2ee90f-2933-4b26-bf81-a75ac702434a}, !- Handle
  Schedule Rule 5,                        !- Name
  {791f98c5-386f-4336-ac94-1014c49e5705}, !- Schedule Ruleset Name
  1,                                      !- Rule Order
  {7dd4b5de-8f49-4f95-b8e1-edbd7d25dc1a}, !- Day Schedule Name
  ,                                       !- Apply Sunday
  ,                                       !- Apply Monday
  ,                                       !- Apply Tuesday
  ,                                       !- Apply Wednesday
  ,                                       !- Apply Thursday
  ,                                       !- Apply Friday
  Yes;                                    !- Apply Saturday

OS:Schedule:Day,
  {7dd4b5de-8f49-4f95-b8e1-edbd7d25dc1a}, !- Handle
  Schedule Day 15,                        !- Name
  {a353ad1f-35e0-424d-8f46-41c697481772}, !- Schedule Type Limits Name
  ,                                       !- Interpolate to Timestep
  24,                                     !- Hour 1
  0,                                      !- Minute 1
  0.349999994039536;                      !- Value Until Time 1

OS:Schedule:Rule,
  {919d1a15-cb62-4270-8e5a-d9baaccf770c}, !- Handle
  Schedule Rule 6,                        !- Name
  {791f98c5-386f-4336-ac94-1014c49e5705}, !- Schedule Ruleset Name
  0,                                      !- Rule Order
  {5bd90167-dd7c-4d68-9bb1-371a8a33ef3e}, !- Day Schedule Name
  ,                                       !- Apply Sunday
  Yes,                                    !- Apply Monday
  Yes,                                    !- Apply Tuesday
  Yes,                                    !- Apply Wednesday
  Yes,                                    !- Apply Thursday
  Yes;                                    !- Apply Friday

OS:Schedule:Day,
  {5bd90167-dd7c-4d68-9bb1-371a8a33ef3e}, !- Handle
  Schedule Day 18,                        !- Name
  {a353ad1f-35e0-424d-8f46-41c697481772}, !- Schedule Type Limits Name
  ,                                       !- Interpolate to Timestep
  8,                                      !- Hour 1
  0,                                      !- Minute 1